-- Copyright (C) 1991-2013 Altera Corporation
-- Your use of Altera Corporation's design tools, logic functions 
-- and other software and tools, and its AMPP partner logic 
-- functions, and any output files from any of the foregoing 
-- (including device programming or simulation files), and any 
-- associated documentation or information are expressly subject 
-- to the terms and conditions of the Altera Program License 
-- Subscription Agreement, Altera MegaCore Function License 
-- Agreement, or other applicable license agreement, including, 
-- without limitation, that your use is for the sole purpose of 
-- programming logic devices manufactured by Altera and sold by 
-- Altera or its authorized distributors.  Please refer to the 
-- applicable agreement for further details.

-- Quartus II generated Memory Initialization File (.mif)

WIDTH=16;
DEPTH=64;

ADDRESS_RADIX=HEX;
DATA_RADIX=HEX;

 "0x4008", "0x4010", "0x4418", "0x0001", "0x46D9", "0x0048", 
 "0x4409", "0x0002", "0x40E2", "0x46E1", "0x0048", 
 "0x4013", "0x401C", "0x4409", "0x0002", "0x2C29", "0x0030", "0x4745", "0xFFEA", "0x4688", "0x0048", 
 "0x4690", "0x004A", "0x4698", "0x004C", "0x4698", "0x004E", "0x4408", "0x001F", "0x43C8", "0x4690", "0x0054", "0x4388", "0x43C0", "0x4600", "0x0044"

CONTENT BEGIN
    00  :   4008;
    01  :   4010;
    02  :   4418;
    03  :   0001;
    04  :   46D9;
    05  :   0048;
    06  :   4409;
    07  :   0002;
    08  :   40E2;
    09  :   46E1;
    0A  :   0048;
    0B  :   4013;
    0C  :   401C;
    0D  :   4409;
    0E  :   0002;
    0F  :   2C29;
    10  :   0030;
    11  :   4745;
    12  :   FFEA;
    13  :   4688;
    14  :   0048;
    15  :   4690;
    16  :   004A;
    17  :   4698;
    18  :   004C;
    19  :   4698;
    1A  :   004E;
    1B  :   4408;
    1C  :   001F;
    1D  :   43C8;
    1E  :   4690;
    1F  :   0054;
    20  :   4388;
    21  :   43C0;
    22  :   4600;
    23  :   0044;
    [24..32] : 0000;
END;
