-- Copyright (C) 1991-2013 Altera Corporation
-- Your use of Altera Corporation's design tools, logic functions 
-- and other software and tools, and its AMPP partner logic 
-- functions, and any output files from any of the foregoing 
-- (including device programming or simulation files), and any 
-- associated documentation or information are expressly subject 
-- to the terms and conditions of the Altera Program License 
-- Subscription Agreement, Altera MegaCore Function License 
-- Agreement, or other applicable license agreement, including, 
-- without limitation, that your use is for the sole purpose of 
-- programming logic devices manufactured by Altera and sold by 
-- Altera or its authorized distributors.  Please refer to the 
-- applicable agreement for further details.

-- Quartus II generated Memory Initialization File (.mif)

WIDTH=16;
DEPTH=64;

ADDRESS_RADIX=HEX;
DATA_RADIX=HEX;

CONTENT BEGIN
    00  :   4008;
    01  :   4010;
    02  :   4418;
    03  :   0001;
    04  :   46D9;
    05  :   0046;
    06  :   4409;
    07  :   0002;
    08  :   40E2;
    09  :   46E1;
    0A  :   0046;
    0B  :   4013;
    0C  :   401C;
    0D  :   4409;
    0E  :   0002;
    0F  :   2C29;
    10  :   0020;
    11  :   4745;
    12  :   FFEA;
    13  :   4688;
    14  :   0048;
    15  :   4690;
    16  :   004A;
    17  :   4698;
    18  :   004C;
    19  :   46A0;
    1A  :   004e;
    1B  :   46A8;
    1C  :   0050;
    1D  :   46B0;
    1E  :   0052;
    1F  :   46B8;
    20  :   0054;
    21  :   4388;
    21  :   4600;
    22  :   0044;
    [24..32] : 0000;
END;
