-- Copyright (C) 1991-2013 Altera Corporation
-- Your use of Altera Corporation's design tools, logic functions 
-- and other software and tools, and its AMPP partner logic 
-- functions, and any output files from any of the foregoing 
-- (including device programming or simulation files), and any 
-- associated documentation or information are expressly subject 
-- to the terms and conditions of the Altera Program License 
-- Subscription Agreement, Altera MegaCore Function License 
-- Agreement, or other applicable license agreement, including, 
-- without limitation, that your use is for the sole purpose of 
-- programming logic devices manufactured by Altera and sold by 
-- Altera or its authorized distributors.  Please refer to the 
-- applicable agreement for further details.

-- Quartus II generated Memory Initialization File (.mif)

WIDTH=16;
DEPTH=64;

ADDRESS_RADIX=HEX;
DATA_RADIX=HEX;


"0x0008", "0x43B0", "0x4438", "0x0085", "0x43F8", "0x46B8", "0x0010", "0x4600", "0x005E"

CONTENT BEGIN
    00  :   4008;
    01  :   4010;
    02  :   4418;
    03  :   0001;
    04  :   43D8;
    05  :   AAD9;
    06  :   4409;
    07  :   0002;
    08  :   40E2;
    09  :   43C8;
    0A  :   AAE1;
    0B  :   4013;
    0C  :   401C;
    0D  :   4409;
    0E  :   0002;
    0F  :   2C29;
    10  :   0010;
    11  :   4745;
    12  :   FFEA;
    13  :   4408;
    14  :   0001;
    15  :   43C8;
    16  :   4688;
    17  :   0000;
    18  :   4410;
    19  :   0002;
    1A  :   43D0;
    1B  :   4690;
    1C  :   0002;
    1D  :   4418;
    1E  :   0004;
    1F  :   43D8;
    20  :   4698;
    21  :   0004;
    22  :   46A0;
    23  :   0006;
    24  :   4428;
    25  :   0008;
    26  :   43E8;
    27  :   46A8;
    28  :   0008;
    29  :   43B0;
    2A  :   4438;
    2B  :   0085;
    2C  :   43F8;
    2D  :   46B8;
    2E  :   0010;
    2F  :   4600;
    30  :   005E;
    [32..3F]  :   0000;
END;
