-- Copyright (C) 1991-2013 Altera Corporation
-- Your use of Altera Corporation's design tools, logic functions 
-- and other software and tools, and its AMPP partner logic 
-- functions, and any output files from any of the foregoing 
-- (including device programming or simulation files), and any 
-- associated documentation or information are expressly subject 
-- to the terms and conditions of the Altera Program License 
-- Subscription Agreement, Altera MegaCore Function License 
-- Agreement, or other applicable license agreement, including, 
-- without limitation, that your use is for the sole purpose of 
-- programming logic devices manufactured by Altera and sold by 
-- Altera or its authorized distributors.  Please refer to the 
-- applicable agreement for further details.

-- Quartus II generated Memory Initialization File (.mif)

WIDTH=16;
DEPTH=64;

ADDRESS_RADIX=HEX;
DATA_RADIX=HEX;

CONTENT BEGIN
    00  :   4420;
    01  :   001F;
    02  :   43E0;
    03  :   4008;
    04  :   4010;
    05  :   4418;
    06  :   0001;
    07  :   AAD9;
    08  :   4409;
    09  :   0002;
    0A  :   40E2;
    0B  :   AAE1;
    0C  :   4013;
    0D  :   401C;
    0E  :   4409;
    0F  :   0002;
    10  :   2C29;
    11  :   0030;
    12  :   4745;
    13  :   FFEC;
    14  :   4688;
    15  :   0000;
    16  :   4690;
    17  :   0002;
    18  :   4698;
    19  :   0004;
    1A  :   46A0;
    1B  :   0006;
    1C  :   46A8;
    1D  :   0008;
    1E  :   43B0;
    1F  :   43C0;
    20  :   46B8;
    21  :   0014;
    22  :   4600;
    23  :   0044;
    [24..32] : 0000;
END;
